
#======================================================================
# CRYSTAL DATA
#----------------------------------------------------------------------
data_VESTA_phase_1

_chemical_name_common                  'Ice XXI'
_cell_length_a                         19.7477(3)
_cell_length_b                         19.7477(3)
_cell_length_c                         7.73915(12)
_cell_angle_alpha                      90.000000
_cell_angle_beta                       90.000000
_cell_angle_gamma                      90.000000
_cell_volume                           3018.043244
_space_group_name_H-M_alt              'I -4 2 d'
_space_group_IT_number                 122

loop_
_space_group_symop_operation_xyz
   'x, y, z'
   '-x, -y, z'
   'y, -x, -z'
   '-y, x, -z'
   '-x+1/2, y, -z+3/4'
   'x+1/2, -y, -z+3/4'
   '-y+1/2, -x, z+3/4'
   'y+1/2, x, z+3/4'
   'x+1/2, y+1/2, z+1/2'
   '-x+1/2, -y+1/2, z+1/2'
   'y+1/2, -x+1/2, -z+1/2'
   '-y+1/2, x+1/2, -z+1/2'
   '-x, y+1/2, -z+1/4'
   'x, -y+1/2, -z+1/4'
   '-y, -x+1/2, z+1/4'
   'y, x+1/2, z+1/4'

loop_
   _atom_site_label
   _atom_site_occupancy
   _atom_site_fract_x
   _atom_site_fract_y
   _atom_site_fract_z
   _atom_site_adp_type
   _atom_site_U_iso_or_equiv
   _atom_site_type_symbol
   O10        1.0     0.000000     0.000000     0.2362(4)   Uiso  0.014400 O
   O20        1.0     0.3932(2)    0.11439(17)  0.9966(5)   Uiso  0.014400 O
   O30        1.0     0.17928(16)  0.08887(17)  0.3557(5)   Uiso  0.016500 O
   O31        1.0     0.06937(17)  0.1789(2)    0.1289(4)   Uiso  0.016500 O
   O40        1.0     0.26235(18)  0.07889(17)  0.0222(5)   Uiso  0.016500 O
   O41        1.0     0.04166(17)  0.2677(2)    0.4506(5)   Uiso  0.016500 O
   O50        1.0     0.1152(2)    0.03572(18)  0.0630(4)   Uiso  0.014400 O
   O51        1.0     0.02129(18)  0.1037(3)    0.4793(4)   Uiso  0.014400 O
   O60        1.0     0.2032(2)    0.17676(16)  0.0456(5)   Uiso  0.021900 O
   O61        1.0     0.3262(3)    0.20785(16)  0.2939(5)   Uiso  0.021900 O
   D100       0.5000  0.0260(3)    0.0142(4)    0.1387(4)   Uiso  0.020300 D
   D101       0.5000  0.4692(3)    0.9931(7)    0.0795(5)   Uiso  0.020300 D
   D200       0.5000  0.3498(3)    0.1019(7)    0.0415(13)  Uiso  0.020300 D
   D201       0.5000  0.3876(8)    0.3382(2)    0.2751(16)  Uiso  0.020300 D
   D202       0.5000  0.1037(8)    0.4192(3)    0.4078(7)   Uiso  0.020300 D
   D203       0.5000  0.4224(4)    0.1223(7)    0.0930(7)   Uiso  0.020300 D
   D300       0.5000  0.2275(2)    0.0842(7)    0.362(3)    Uiso  0.016100 D
   D301       0.5000  0.1560(4)    0.0762(7)    0.2523(7)   Uiso  0.016100 D
   D302       0.5000  0.1531(4)    0.0482(3)    0.352(3)    Uiso  0.016100 D
   D303       0.5000  0.1646(5)    0.1309(3)    0.4032(13)  Uiso  0.016100 D
   D310       0.5000  0.0536(5)    0.2239(3)    0.1059(17)  Uiso  0.016100 D
   D311       0.5000  0.0604(7)    0.1691(7)    0.2478(5)   Uiso  0.016100 D
   D312       0.5000  0.0369(4)    0.1543(4)    0.0613(9)   Uiso  0.016100 D
   D313       0.5000  0.1148(3)    0.1816(8)    0.0873(13)  Uiso  0.016100 D
   D400       0.5000  0.3097(2)    0.0694(7)    0.0138(18)  Uiso  0.016100 D
   D401       0.5000  0.2470(7)    0.4305(5)    0.3424(7)   Uiso  0.016100 D
   D402       0.5000  0.2546(7)    0.0350(3)    0.0702(13)  Uiso  0.016100 D
   D403       0.5000  0.2408(4)    0.1161(3)    0.0787(11)  Uiso  0.016100 D
   D410       0.5000  0.0587(5)    0.3127(3)    0.4397(18)  Uiso  0.016100 D
   D411       0.5000  0.4691(7)    0.2433(7)    0.0678(5)   Uiso  0.016100 D
   D412       0.5000  0.0050(3)    0.2636(8)    0.3699(8)   Uiso  0.016100 D
   D413       0.5000  0.0808(3)    0.2412(4)    0.4243(17)  Uiso  0.016100 D
   D500       0.5000  0.0763(3)    0.0183(5)    0.1218(11)  Uiso  0.020300 D
   D501       0.5000  0.1154(8)    0.4399(4)    0.2938(7)   Uiso  0.020300 D
   D502       0.5000  0.1467(4)    0.0550(5)    0.1428(8)   Uiso  0.020300 D
   D503       0.5000  0.4929(3)    0.1325(5)    0.7746(14)  Uiso  0.020300 D
   D510       0.5000  0.0060(5)    0.0729(4)    0.3922(8)   Uiso  0.020300 D
   D511       0.5000  0.4479(4)    0.1092(8)    0.1765(7)   Uiso  0.020300 D
   D512       0.5000  0.0326(7)    0.1250(4)    0.3724(7)   Uiso  0.020300 D
   D513       0.5000  0.3784(5)    0.0222(3)    0.2589(16)  Uiso  0.020300 D
   D600       0.5000  0.1907(7)    0.2158(3)    0.1105(10)  Uiso  0.039200 D
   D601       0.5000  0.2281(4)    0.1356(3)    0.058(3)    Uiso  0.039200 D
   D602       0.5000  0.1580(3)    0.1652(7)    0.0131(14)  Uiso  0.039200 D
   D603       0.5000  0.2112(7)    0.2957(4)    0.3040(7)   Uiso  0.039200 D
   D610       0.5000  0.3175(7)    0.2627(4)    0.0513(7)   Uiso  0.039200 D
   D611       0.5000  0.1841(8)    0.2351(4)    0.3576(7)   Uiso  0.039200 D
   D612       0.5000  0.3671(3)    0.2685(4)   -0.0168(17)  Uiso  0.039200 D
   D613       0.5000  0.3121(7)    0.1622(3)    0.314(2)    Uiso  0.039200 D

