
#======================================================================
# CRYSTAL DATA
#----------------------------------------------------------------------
data_VESTA_phase_1

_chemical_name_common                  'Ice XXII'
_cell_length_a                         14.9690(5)
_cell_length_b                         16.4707(7)
_cell_length_c                         25.4757(9)
_cell_angle_alpha                      90.000000
_cell_angle_beta                       90.000000
_cell_angle_gamma                      90.000000
_cell_volume                           6281.031272
_space_group_name_H-M_alt              'F d d 2'
_space_group_IT_number                 43

loop_
_space_group_symop_operation_xyz
   'x, y, z'
   '-x, -y, z'
   'x+1/4, -y+1/4, z+1/4'
   '-x+1/4, y+1/4, z+1/4'
   'x, y+1/2, z+1/2'
   '-x, -y+1/2, z+1/2'
   'x+1/4, -y+3/4, z+3/4'
   '-x+1/4, y+3/4, z+3/4'
   'x+1/2, y, z+1/2'
   '-x+1/2, -y, z+1/2'
   'x+3/4, -y+1/4, z+3/4'
   '-x+3/4, y+1/4, z+3/4'
   'x+1/2, y+1/2, z'
   '-x+1/2, -y+1/2, z'
   'x+3/4, -y+3/4, z+1/4'
   '-x+3/4, y+3/4, z+1/4'

loop_
   _atom_site_label
   _atom_site_occupancy
   _atom_site_fract_x
   _atom_site_fract_y
   _atom_site_fract_z
   _atom_site_adp_type
   _atom_site_U_iso_or_equiv
   _atom_site_type_symbol
   O1         1.0     0.1741(4)    0.0684(4)    0.2234(13)  Uiso  0.023700 O
   O2         1.0     0.3383(4)    0.0903(4)    0.18952(14) Uiso  0.023700 O
   O3         1.0     0.4288(4)    0.0408(4)    0.07378(13) Uiso  0.023700 O
   O4         1.0     0.000000     0.000000     0.27867(11) Uiso  0.023700 O
   O5         1.0     0.1199(4)    0.2280(4)    0.15989(13) Uiso  0.023700 O
   O6         1.0     0.0395(4)    0.1221(3)    0.07768(16) Uiso  0.023700 O
   O7         1.0     0.000000     0.000000     0.00270(14) Uiso  0.023700 O
   O8         1.0     0.5163(4)    0.1685(3)    0.13219(16) Uiso  0.023700 O
   O9         1.0     0.6393(3)    0.2250(5)    0.23716(14) Uiso  0.023700 O
   O10        1.0     0.1033(4)   -0.0144(3)    0.14458(14) Uiso  0.023700 O
   O11        1.0     0.2593(4)    0.1615(4)    0.09961(14) Uiso  0.023700 O
   O12        1.0     0.1146(3)    0.2677(4)    0.05060(16) Uiso  0.023700 O
   O13        1.0     0.1301(3)    0.0426(4)    0.34837(16) Uiso  0.023700 O
   O14        1.0     0.2314(5)    0.1352(3)    0.45118(13) Uiso  0.023700 O
   O15        1.0     0.2238(4)    0.0821(3)    0.00838(14) Uiso  0.023700 O
   O16        1.0     0.0494(4)    0.1688(4)    0.51296(13) Uiso  0.023700 O
   O17        1.0     0.0873(4)    0.1919(4)    0.29805(16) Uiso  0.023700 O
   O18        1.0     0.1585(4)    0.0818(4)    0.57844(14) Uiso  0.023700 O
   O19        1.0     0.0808(4)    0.5493(3)    0.19191(16) Uiso  0.023700 O
   O20        1.0     0.0078(4)    0.1201(4)    0.41255(12) Uiso  0.023700 O
   D10        0.5000  0.2357(4)    0.069(3)     0.2131(2)   Uiso  0.005570 D
   D11        0.5000  0.1449(9)    0.0445(8)    0.19384(14) Uiso  0.005570 D
   D12        0.5000  0.172(3)     0.0234(5)    0.24716(16) Uiso  0.005570 D
   D13        0.5000  0.1442(8)    0.0984(7)    0.25043(16) Uiso  0.005570 D
   D20        0.5000  0.2838(4)    0.0749(13)   0.2066(2)   Uiso  0.005570 D
   D21        0.5000  0.3143(10)   0.1130(9)    0.15780(17) Uiso  0.005570 D
   D22        0.5000  0.3864(5)    0.1071(11)   0.21210(18) Uiso  0.005570 D
   D23        0.5000  0.3704(8)    0.0417(4)    0.1808(2)   Uiso  0.005570 D
   D30        0.5000  0.4838(4)    0.0145(7)    0.0649(2)   Uiso  0.005570 D
   D31        0.5000  0.0606(17)   0.4165(5)    0.09844(18) Uiso  0.005570 D
   D32        0.5000  0.4088(10)   0.041(2)     0.03811(16) Uiso  0.005570 D
   D33        0.5000  0.1009(8)    0.4933(7)    0.09860(18) Uiso  0.005570 D
   D40        0.5000  0.0329(5)    0.0079(16)   0.31046(14) Uiso  0.005570 D
   D41        0.5000  0.246(4)     0.2297(7)    0.49361(13) Uiso  0.005570 D
   D50        0.5000  0.1532(7)    0.235(3)     0.19177(16) Uiso  0.005570 D
   D51        0.5000  0.0813(7)    0.2602(7)    0.13841(18) Uiso  0.005570 D
   D52        0.5000  0.1530(7)    0.2177(16)   0.12842(17) Uiso  0.005570 D
   D53        0.5000  0.0683(5)    0.1948(7)    0.1659(2)   Uiso  0.005570 D
   D60        0.5000  0.0285(18)   0.0940(7)    0.04540(16) Uiso  0.005570 D
   D61        0.5000  0.0582(13)   0.0783(5)    0.09978(18) Uiso  0.005570 D
   D62        0.5000  0.0681(8)    0.1731(4)    0.0709(2)   Uiso  0.005570 D
   D63        0.5000  0.2302(4)    0.1072(9)    0.3230(3)   Uiso  0.005570 D
   D70        0.5000  0.2007(4)    0.2425(16)   0.22919(16) Uiso  0.005570 D
   D71        0.5000  0.0261(7)    0.0409(4)    0.02451(17) Uiso  0.005570 D
   D80        0.5000  0.0220(7)    0.3692(5)    0.1146(2)   Uiso  0.005570 D
   D81        0.5000  0.0364(5)    0.3020(7)    0.1419(2)   Uiso  0.005570 D
   D82        0.5000  0.5491(7)    0.2138(4)    0.1183(2)   Uiso  0.005570 D
   D83        0.5000  0.5313(14)   0.1251(5)    0.15567(18) Uiso  0.005570 D
   D90        0.5000  0.1620(5)    0.0092(7)    0.4840(3)   Uiso  0.005570 D
   D91        0.5000  0.5815(4)    0.226(3)     0.2532(2)   Uiso  0.005570 D
   D92        0.5000  0.6877(5)    0.2077(10)   0.21522(18) Uiso  0.005570 D
   D93        0.5000  0.3994(13)   0.0321(16)   0.02405(16) Uiso  0.005570 D
   D100       0.5000  0.1386(7)    0.0075(9)    0.17265(17) Uiso  0.005570 D
   D101       0.5000  0.0836(13)   0.0329(4)    0.1258(2)   Uiso  0.005570 D
   D102       0.5000  0.1911(5)    0.1960(5)    0.4029(2)   Uiso  0.005570 D
   D103       0.5000  0.136(2)     0.2012(7)    0.36485(17) Uiso  0.005570 D
   D110       0.5000  0.2917(8)    0.1392(9)    0.12883(17) Uiso  0.005570 D
   D111       0.5000  0.2063(5)    0.1876(8)    0.1123(2)   Uiso  0.005570 D
   D112       0.5000  0.2927(7)    0.2051(5)    0.0843(2)   Uiso  0.005570 D
   D113       0.5000  0.2398(13)   0.1278(7)    0.07131(17) Uiso  0.005570 D
   D120       0.5000  0.0817(7)    0.2239(4)    0.0661(2)   Uiso  0.005570 D
   D121       0.5000  0.1624(5)    0.2877(10)   0.07180(18) Uiso  0.005570 D
   D122       0.5000  0.0542(4)    0.2841(10)   0.0443(2)   Uiso  0.005570 D
   D123       0.5000  0.125(2)     0.2928(8)    0.01732(16) Uiso  0.005570 D
   D130       0.5000  0.0741(4)    0.0288(13)   0.3327(2)   Uiso  0.005570 D
   D131       0.5000  0.1721(7)    0.0722(7)    0.3273(2)   Uiso  0.005570 D
   D132       0.5000  0.5857(7)    0.2550(5)    0.1188(2)   Uiso  0.005570 D
   D133       0.5000  0.0759(5)    0.0643(9)    0.3628(2)   Uiso  0.005570 D
   D140       0.5000  0.241(2)     0.1693(7)    0.48123(17) Uiso  0.005570 D
   D141       0.5000  0.0131(7)    0.1561(5)    0.1824(2)   Uiso  0.005570 D
   D142       0.5000  0.1999(8)    0.0862(4)    0.4590(2)   Uiso  0.005570 D
   D143       0.5000  0.229(3)     0.1669(7)    0.41974(16) Uiso  0.005570 D
   D150       0.5000  0.0589(7)    0.3638(7)    0.23337(18) Uiso  0.005570 D
   D151       0.5000  0.2748(5)    0.0479(7)    0.0135(2)   Uiso  0.005570 D
   D152       0.5000  0.2356(17)   0.1149(7)    0.03855(17) Uiso  0.005570 D
   D153       0.5000  0.2025(10)   0.0372(4)    0.0289(2)   Uiso  0.005570 D
   D160       0.5000  0.0716(11)   0.2198(4)    0.5006(2)   Uiso  0.005570 D
   D161       0.5000  0.0055(4)    0.3143(11)   0.0289(2)   Uiso  0.005570 D
   D162       0.5000  0.0746(9)    0.1437(8)    0.54342(17) Uiso  0.005570 D
   D163       0.5000  0.0356(16)   0.1474(9)    0.47894(16) Uiso  0.005570 D
   D170       0.5000  0.1208(7)    0.1547(5)    0.27689(18) Uiso  0.005570 D
   D171       0.5000  0.1239(7)    0.192(3)     0.32888(16) Uiso  0.005570 D
   D172       0.5000  0.0630(10)   0.2449(4)    0.2920(2)   Uiso  0.005570 D
   D173       0.5000  0.0262(4)    0.1778(13)   0.3043(2)   Uiso  0.005570 D
   D180       0.5000  0.1336(9)    0.5298(4)    0.0866(2)   Uiso  0.005570 D
   D181       0.5000  0.1085(5)    0.1064(8)    0.5610(2)   Uiso  0.005570 D
   D182       0.5000  0.2163(4)    0.0727(18)   0.5636(2)   Uiso  0.005570 D
   D183       0.5000  0.1724(14)   0.5932(16)   0.11436(16) Uiso  0.005570 D
   D190       0.5000  0.3885(8)   -0.0045(4)    0.1761(2)   Uiso  0.005570 D
   D191       0.5000  0.5607(11)   0.0977(4)    0.1748(2)   Uiso  0.005570 D
   D192       0.5000  0.1124(7)    0.550(3)     0.22463(16) Uiso  0.005570 D
   D193       0.5000  0.0264(4)    0.5226(7)    0.2018(2)   Uiso  0.005570 D
   D200       0.5000  0.2406(13)   0.6622(7)    0.19215(17) Uiso  0.005570 D
   D201       0.5000  0.0364(8)    0.0930(7)    0.38363(17) Uiso  0.005570 D
   D202       0.5000  0.0236(14)   0.1494(7)    0.44361(16) Uiso  0.005570 D
   D203       0.5000  0.2116(5)    0.6071(9)    0.14108(18) Uiso  0.005570 D
