
#======================================================================
# CRYSTAL DATA
#----------------------------------------------------------------------
data_VESTA_phase_1

_chemical_name_common                  'Ice XXIII'
_cell_length_a                         19.697(3)
_cell_length_b                         19.648(3)
_cell_length_c                         7.7361(7)
_cell_angle_alpha                      90.000000
_cell_angle_beta                       90.000000
_cell_angle_gamma                      90.000000
_cell_volume                           2993.922453
_space_group_name_H-M_alt              'P 21 21 21'
_space_group_IT_number                 19

loop_
_space_group_symop_operation_xyz
   'x, y, z'
   '-x+1/2, -y, z+1/2'
   '-x, y+1/2, -z+1/2'
   'x+1/2, -y+1/2, -z'

loop_
   _atom_site_label
   _atom_site_occupancy
   _atom_site_fract_x
   _atom_site_fract_y
   _atom_site_fract_z
   _atom_site_adp_type
   _atom_site_U_iso_or_equiv
   _atom_site_type_symbol
   O100       1.0     0.996500     0.750500     0.861500    Uiso  0.011400 O
   O101       1.0     0.998300     0.750700     0.387400    Uiso  0.011400 O
   O200       1.0     0.393500     0.863300     0.626200    Uiso  0.011400 O
   O201       1.0     0.609200     0.635000     0.620000    Uiso  0.011400 O
   O202       1.0     0.114200     0.357600     0.629700    Uiso  0.011400 O
   O203       1.0     0.886100     0.140900     0.624600    Uiso  0.011400 O
   O300       1.0     0.179200     0.837700     0.979600    Uiso  0.011400 O
   O301       1.0     0.819400     0.663400     0.978700    Uiso  0.011400 O
   O302       1.0     0.087900     0.570600     0.270500    Uiso  0.011400 O
   O303       1.0     0.911500     0.929900     0.271700    Uiso  0.011400 O
   O310       1.0     0.069900     0.928700     0.750600    Uiso  0.011400 O
   O311       1.0     0.931200     0.571000     0.753000    Uiso  0.011400 O
   O312       1.0     0.177900     0.680700     0.496100    Uiso  0.011400 O
   O313       1.0     0.818500     0.819000     0.496400    Uiso  0.011400 O
   O400       1.0     0.261400     0.829200     0.646200    Uiso  0.011400 O
   O401       1.0     0.738500     0.671500     0.645800    Uiso  0.011400 O
   O402       1.0     0.078700     0.488300     0.605700    Uiso  0.011400 O
   O403       1.0     0.921400     0.011200     0.603500    Uiso  0.011400 O
   O410       1.0     0.043800     0.020600     0.074400    Uiso  0.011400 O
   O411       1.0     0.958700     0.483000     0.075100    Uiso  0.011400 O
   O412       1.0     0.267700     0.707400     0.175300    Uiso  0.011400 O
   O413       1.0     0.730800     0.792800     0.176800    Uiso  0.011400 O
   O500       1.0     0.116400     0.786200     0.686800    Uiso  0.011400 O
   O501       1.0     0.882800     0.714900     0.685700    Uiso  0.011400 O
   O502       1.0     0.035500     0.632900     0.564500    Uiso  0.011400 O
   O503       1.0     0.964300     0.865800     0.563100    Uiso  0.011400 O
   O510       1.0     0.022400     0.854400     0.104800    Uiso  0.011400 O
   O511       1.0     0.977800     0.647600     0.101700    Uiso  0.011400 O
   O512       1.0     0.103700     0.728100     0.147300    Uiso  0.011400 O
   O513       1.0     0.898200     0.771600     0.143000    Uiso  0.011400 O
   O600       1.0     0.203400     0.925200     0.667400    Uiso  0.017600 O
   O601       1.0     0.797600     0.573700     0.669000    Uiso  0.017600 O
   O602       1.0     0.175900     0.547000     0.577600    Uiso  0.017600 O
   O603       1.0     0.824600     0.951300     0.581500    Uiso  0.017600 O
   O610       1.0     0.325100     0.957400     0.917900    Uiso  0.017600 O
   O611       1.0     0.674800     0.542700     0.919200    Uiso  0.017600 O
   O612       1.0     0.207800     0.425800     0.330900    Uiso  0.017600 O
   O613       1.0     0.792200     0.074200     0.329900    Uiso  0.017600 O
   D1001      1.0     0.971300     0.730500     0.767500    Uiso  0.007100 D
   D1002      0.5110  0.003300     0.721500     0.486900    Uiso  0.007100 D
   D1003      0.4400  0.982200     0.777000     0.484400    Uiso  0.007100 D
   D1010      0.8180  0.469000     0.745800     0.711900    Uiso  0.007100 D
   D1011      0.2230  0.530300     0.739900     0.703800    Uiso  0.007100 D
   D1012      1.0     1.015400     0.279400     0.542300    Uiso  0.007100 D
   D2000      0.5300  0.348700     0.874100     0.668700    Uiso  0.007100 D
   D2001      0.5470  0.649800     0.645700     0.684500    Uiso  0.007100 D
   D2002      0.5670  0.094600     0.399100     0.585600    Uiso  0.007100 D
   D2003      0.4410  0.874400     0.094100     0.601100    Uiso  0.007100 D
   D2010      0.7420  0.382000     0.087900     0.906600    Uiso  0.007100 D
   D2011      0.0920  0.596700     0.410600     0.896200    Uiso  0.007100 D
   D2012      0.3120  0.338900     0.348600     0.356100    Uiso  0.007100 D
   D2013      0.6350  0.661500     0.148000     0.341100    Uiso  0.007100 D
   D2020      0.4730  0.107400     0.168800     0.031700    Uiso  0.007100 D
   D2021      0.5500  0.894100     0.331100     0.030100    Uiso  0.007100 D
   D2022      0.5850  0.420400     0.630200     0.212500    Uiso  0.007100 D
   D2023      0.4780  0.582700     0.848700     0.217000    Uiso  0.007100 D
   D2030      0.9050  0.425400     0.873500     0.717200    Uiso  0.007100 D
   D2031      0.1610  0.578500     0.632500     0.716800    Uiso  0.007100 D
   D2032      0.2130  0.117400     0.326700     0.533000    Uiso  0.007100 D
   D2033      0.7690  0.880300     0.172000     0.529100    Uiso  0.007100 D
   D3000      0.4410  0.227800     0.831800     0.971200    Uiso  0.007100 D
   D3001      0.5590  0.773100     0.673300     1.010000    Uiso  0.007100 D
   D3002      0.4480  0.096100     0.522400     0.259900    Uiso  0.007100 D
   D3003      0.5520  0.913800     0.978100     0.249000    Uiso  0.007100 D
   D3010      0.5120  0.151900     0.836600     0.876200    Uiso  0.007100 D
   D3011      0.4810  0.848200     0.673700     0.881300    Uiso  0.007100 D
   D3012      0.4770  0.092400     0.599800     0.370200    Uiso  0.007100 D
   D3013      0.5580  0.916200     0.900400     0.370700    Uiso  0.007100 D
   D3020      0.5290  0.155200     0.796900     1.012300    Uiso  0.007100 D
   D3021      0.4380  0.845300     0.703000     1.011900    Uiso  0.007100 D
   D3022      0.5590  0.046100     0.594200     0.246000    Uiso  0.007100 D
   D3023      0.3640  0.950000     0.903300     0.234400    Uiso  0.007100 D
   D3030      0.5180  0.159000     0.879000     0.023100    Uiso  0.007100 D
   D3031      0.5220  0.834100     0.619900     0.022800    Uiso  0.007100 D
   D3032      0.5160  0.131100     0.586400     0.227800    Uiso  0.007100 D
   D3033      0.5270  0.871600     0.924900     0.200500    Uiso  0.007100 D
   D3100      0.5610  0.056600     0.973900     0.716000    Uiso  0.007100 D
   D3101      0.4390  0.947000     0.525700     0.727400    Uiso  0.007100 D
   D3102      0.0910  0.223100     0.697300     0.519500    Uiso  0.007100 D
   D3103      0.9090  0.774700     0.804400     0.537800    Uiso  0.007100 D
   D3110      0.5110  0.077000     0.916800     0.870300    Uiso  0.007100 D
   D3111      0.5220  0.945500     0.579200     0.870300    Uiso  0.007100 D
   D3112      0.4800  0.167400     0.696300     0.381000    Uiso  0.007100 D
   D3113      0.5310  0.827100     0.811900     0.374300    Uiso  0.007100 D
   D3120      0.4180  0.035700     0.903600     0.688200    Uiso  0.007100 D
   D3121      0.5340  0.964400     0.601200     0.702900    Uiso  0.007100 D
   D3122      0.9360  0.148800     0.716400     0.539000    Uiso  0.007100 D
   D3130      0.5100  0.112600     0.911300     0.708200    Uiso  0.007100 D
   D3131      0.5050  0.885500     0.588100     0.741700    Uiso  0.007100 D
   D3132      0.4940  0.161500     0.635400     0.520600    Uiso  0.007100 D
   D3133      0.5130  0.803200     0.864200     0.525300    Uiso  0.007100 D
   D4000      0.4700  0.308100     0.841700     0.665700    Uiso  0.007100 D
   D4001      0.4530  0.691500     0.684100     0.631100    Uiso  0.007100 D
   D4002      0.4330  0.061700     0.442400     0.613900    Uiso  0.007100 D
   D4003      0.5590  0.925400     0.057900     0.565800    Uiso  0.007100 D
   D4010      0.5690  0.245500     0.176300     0.971400    Uiso  0.007100 D
   D4011      0.4310  0.744900     0.316000     0.972800    Uiso  0.007100 D
   D4012      0.5660  0.432900     0.500200     0.278800    Uiso  0.007100 D
   D4013      0.4340  0.562200     1.003600     0.278700    Uiso  0.007100 D
   D4020      0.6140  0.241300     0.784600     0.657800    Uiso  0.007100 D
   D4021      0.4650  0.747700     0.714000     0.703800    Uiso  0.007100 D
   D4022      0.7520  0.034700     0.496700     0.555400    Uiso  0.007100 D
   D4023      0.3460  0.964600    -0.003800     0.558400    Uiso  0.007100 D
   D4030      0.4850  0.241300     0.865900     0.711400    Uiso  0.007100 D
   D4031      0.5130  0.760300     0.632800     0.698700    Uiso  0.007100 D
   D4032      0.3810  0.116400     0.508900     0.545600    Uiso  0.007100 D
   D4033      0.5290  0.883400     0.994700     0.537100    Uiso  0.007100 D
   D4100      0.9080  0.065600     0.061300     0.032700    Uiso  0.007100 D
   D4101      0.2580  0.945200     0.436900     0.100900    Uiso  0.007100 D
   D4102      0.3650  0.312400     0.688200     0.160500    Uiso  0.007100 D
   D4103      0.6880  0.687500     0.812600     0.206100    Uiso  0.007100 D
   D4110      0.4370  0.466100     0.997300     0.687800    Uiso  0.007100 D
   D4111      0.5630  0.525900     0.504600     0.689200    Uiso  0.007100 D
   D4112      0.5710  0.249500     0.288600     0.558900    Uiso  0.007100 D
   D4113      0.4290  0.754800     0.215700     0.559600    Uiso  0.007100 D
   D4120      0.2490  0.006300     0.029800     0.997400    Uiso  0.007100 D
   D4121      0.6550  0.995400     0.488200     0.993600    Uiso  0.007100 D
   D4122      0.5350  0.253600     0.744000     0.250100    Uiso  0.007100 D
   D4123      0.3860  0.712400     0.757500     0.249600    Uiso  0.007100 D
   D4130      0.4060  0.081200     0.989800     0.093900    Uiso  0.007100 D
   D4131      0.5250  0.920700     0.511500     0.044000    Uiso  0.007100 D
   D4132      0.5290  0.237800     0.672400     0.218900    Uiso  0.007100 D
   D4133      0.4980  0.761200     0.830500     0.157300    Uiso  0.007100 D
   D5000      1.0     0.075200     0.764400     0.725300    Uiso  0.007100 D
   D5002      0.4890  0.032600     0.675600     0.503700    Uiso  0.007100 D
   D5003      0.5600  0.982900     0.825400     0.510600    Uiso  0.007100 D
   D5010      0.5270  0.110600     0.186700     0.915000    Uiso  0.007100 D
   D5011      0.4500  0.870200     0.313100     0.911900    Uiso  0.007100 D
   D5012      0.4150  0.439900     0.617900     0.337000    Uiso  0.007100 D
   D5013      0.5220  0.561800     0.882700     0.337900    Uiso  0.007100 D
   D5020      0.4880  0.148800     0.804000     0.768700    Uiso  0.007100 D
   D5021      0.5190  0.853800     0.692300     0.768300    Uiso  0.007100 D
   D5022      0.5230  0.051900     0.601700     0.477800    Uiso  0.007100 D
   D5023      0.4420  0.938400     0.893500     0.484100    Uiso  0.007100 D
   D5030      0.5830  0.019000     0.885300     0.608400    Uiso  0.007100 D
   D5031      0.4660  0.981000     0.614700     0.608400    Uiso  0.007100 D
   D5032      0.0650  0.868300     0.241700     0.846400    Uiso  0.007100 D
   D5033      1.0     0.870700     0.767900     0.622900    Uiso  0.007100 D
   D5101      1.0     0.999200     0.678900     0.022300    Uiso  0.007100 D
   D5102      0.7780  0.069300     0.719400     0.233100    Uiso  0.007100 D
   D5103      0.1830  0.928000     0.753700     0.230700    Uiso  0.007100 D
   D5110      0.0940  0.447600     0.861200     0.802900    Uiso  0.007100 D
   D5111      0.8390  0.553900     0.641800     0.800300    Uiso  0.007100 D
   D5112      0.7860  0.112200     0.302500     0.450300    Uiso  0.007100 D
   D5113      0.2310  0.887300     0.197200     0.446800    Uiso  0.007100 D
   D5120      0.4890  0.033900     0.878300     1.000000    Uiso  0.007100 D
   D5121      0.4780  0.956900     0.628300     1.000200    Uiso  0.007100 D
   D5122      0.5200  0.127500     0.712400     0.248600    Uiso  0.007100 D
   D5123      0.4690  0.879300     0.783800     0.253800    Uiso  0.007100 D
   D5130      0.5620  0.374600     0.771400     0.849600    Uiso  0.007100 D
   D5131      0.4720  0.617200     0.729300     0.904600    Uiso  0.007100 D
   D5132      0.6360  0.021000     0.369400     0.351600    Uiso  0.007100 D
   D5133      0.4420  0.977600     0.127800     0.408800    Uiso  0.007100 D
   D6000      0.4350  0.208700     0.966600     0.732900    Uiso  0.008800 D
   D6001      0.5650  0.817800     0.533100     0.716700    Uiso  0.008800 D
   D6002      0.4440  0.216200     0.563400     0.520300    Uiso  0.008800 D
   D6003      0.5560  0.784400     0.936400     0.521300    Uiso  0.008800 D
   D6010      0.5150  0.226400     0.886600     0.717500    Uiso  0.008800 D
   D6011      0.4870  0.769800     0.613600     0.652600    Uiso  0.008800 D
   D6012      0.6190  0.137500     0.518800     0.548600    Uiso  0.008800 D
   D6013      0.4710  0.865200     0.978400     0.593800    Uiso  0.008800 D
   D6020      0.4900  0.159100     0.905700     0.686900    Uiso  0.008800 D
   D6021      0.4950  0.842100     0.592400     0.647700    Uiso  0.008800 D
   D6022      0.5060  0.158300     0.591300     0.547700    Uiso  0.008800 D
   D6023      0.4870  0.839300     0.909200     0.633800    Uiso  0.008800 D
   D6030      0.4530  0.185600     0.048300     0.928800    Uiso  0.008800 D
   D6031      0.5600  0.781200     0.449500     0.933600    Uiso  0.008800 D
   D6032      0.4860  0.301100     0.563400     0.315700    Uiso  0.008800 D
   D6033      0.4310  0.705300     0.957400     0.323100    Uiso  0.008800 D
   D6100      0.3770  0.319300     0.009900     0.672500    Uiso  0.008800 D
   D6101      0.6070  0.672200     0.489600     0.676100    Uiso  0.008800 D
   D6102      0.5320  0.260900     0.423900     0.574500    Uiso  0.008800 D
   D6103      0.4550  0.739000     0.060000     0.580100    Uiso  0.008800 D
   D6110      0.5470  0.183000     0.984000     0.978100    Uiso  0.008800 D
   D6111      0.4400  0.808300     0.518100     0.983000    Uiso  0.008800 D
   D6112      0.5140  0.230500     0.557900     0.272500    Uiso  0.008800 D
   D6113      0.5690  0.764700     0.935400     0.269300    Uiso  0.008800 D
   D6120      0.5940  0.367600     0.024500     0.622800    Uiso  0.008800 D
   D6121      0.4750  0.632100     0.477400     0.615500    Uiso  0.008800 D
   D6122      0.4710  0.274300     0.384200     0.624300    Uiso  0.008800 D
   D6123      0.5020  0.723900     0.119000     0.639000    Uiso  0.008800 D
   D6130      0.4780  0.312400     0.912200     0.881300    Uiso  0.008800 D
   D6131      0.4820  0.694600     0.587000     0.936600    Uiso  0.008800 D
   D6132      0.4730  0.161100     0.438000     0.353100    Uiso  0.008800 D
   D6133      0.4840  0.836700     0.059100     0.294700    Uiso  0.008800 D
