
#======================================================================
# CRYSTAL DATA
#----------------------------------------------------------------------
data_VESTA_phase_1

_chemical_name_common                  'Ice XXI'
_cell_length_a                         19.7478(3)
_cell_length_b                         19.7478(3)
_cell_length_c                         7.73916(12)
_cell_angle_alpha                      90.000000
_cell_angle_beta                       90.000000
_cell_angle_gamma                      90.000000
_cell_volume                           3018.080380
_space_group_name_H-M_alt              'I -4 2 d'
_space_group_IT_number                 122

loop_
_space_group_symop_operation_xyz
   'x, y, z'
   '-x, -y, z'
   'y, -x, -z'
   '-y, x, -z'
   '-x+1/2, y, -z+3/4'
   'x+1/2, -y, -z+3/4'
   '-y+1/2, -x, z+3/4'
   'y+1/2, x, z+3/4'
   'x+1/2, y+1/2, z+1/2'
   '-x+1/2, -y+1/2, z+1/2'
   'y+1/2, -x+1/2, -z+1/2'
   '-y+1/2, x+1/2, -z+1/2'
   '-x, y+1/2, -z+1/4'
   'x, -y+1/2, -z+1/4'
   '-y, -x+1/2, z+1/4'
   'y, x+1/2, z+1/4'

loop_
   _atom_site_label
   _atom_site_occupancy
   _atom_site_fract_x
   _atom_site_fract_y
   _atom_site_fract_z
   _atom_site_adp_type
   _atom_site_U_iso_or_equiv
   _atom_site_type_symbol
   O10        1.0     0.000000     0.000000     0.2363(4)   Uiso  0.013100 O
   O20        1.0     0.3932(2)    0.11450(17)  0.9966(5)   Uiso  0.013100 O
   O30        1.0     0.17930(17)  0.08882(18)  0.3558(7)   Uiso  0.016100 O
   O31        1.0     0.06963(18)  0.1791(2)    0.1289(5)   Uiso  0.016100 O
   O40        1.0     0.2622(2)    0.07899(18)  0.0225(5)   Uiso  0.016100 O
   O41        1.0     0.04165(18)  0.2679(2)    0.4505(5)   Uiso  0.016100 O
   O50        1.0     0.1152(3)    0.0357(3)    0.0632(5)   Uiso  0.013100 O
   O51        1.0     0.0214(2)    0.1034(3)    0.4793(4)   Uiso  0.013100 O
   O60        1.0     0.2032(2)    0.17661(17)  0.0453(7)   Uiso  0.024100 O
   O61        1.0     0.3262(3)    0.20785(17)  0.2940(5)   Uiso  0.024100 O
   D100       0.5000  0.0261(3)    0.0145(4)    0.1392(4)   Uiso  0.020100 D
   D101       0.5000  0.4690(3)    0.9925(7)    0.0790(5)   Uiso  0.020100 D
   D200       0.5000  0.3498(3)    0.1021(7)    0.0414(13)  Uiso  0.020100 D
   D201       0.5000  0.3875(8)    0.3383(3)    0.2769(16)  Uiso  0.020100 D
   D202       0.5000  0.1047(8)    0.4192(4)    0.4079(7)   Uiso  0.020100 D
   D203       0.5000  0.4225(4)    0.1225(7)    0.0927(7)   Uiso  0.020100 D
   D300       0.5000  0.2274(2)    0.0839(7)    0.365(3)    Uiso  0.018200 D
   D301       0.5000  0.1564(4)    0.0758(7)    0.2522(7)   Uiso  0.018200 D
   D302       0.5000  0.1533(4)    0.0481(3)    0.352(3)    Uiso  0.018200 D
   D303       0.5000  0.1638(5)    0.1306(3)    0.4031(13)  Uiso  0.018200 D
   D310       0.5000  0.0535(5)    0.2238(3)    0.1048(17)  Uiso  0.018200 D
   D311       0.5000  0.0610(7)    0.1698(7)    0.2481(7)   Uiso  0.018200 D
   D312       0.5000  0.0365(4)    0.1546(4)    0.0637(10)  Uiso  0.018200 D
   D313       0.5000  0.1149(3)    0.1820(8)    0.0868(13)  Uiso  0.018200 D
   D400       0.5000  0.3095(3)    0.0695(7)    0.0136(18)  Uiso  0.018200 D
   D401       0.5000  0.2470(7)    0.4300(5)    0.3426(7)   Uiso  0.018200 D
   D402       0.5000  0.2551(8)    0.0349(3)    0.0696(13)  Uiso  0.018200 D
   D403       0.5000  0.2409(5)    0.1161(3)    0.0805(11)  Uiso  0.018200 D
   D410       0.5000  0.0596(5)    0.3126(3)    0.4395(18)  Uiso  0.018200 D
   D411       0.5000  0.4694(7)    0.2439(7)    0.0670(7)   Uiso  0.018200 D
   D412       0.5000  0.0050(3)    0.2630(8)    0.3701(9)   Uiso  0.018200 D
   D413       0.5000  0.0808(3)    0.2409(4)    0.427(2)    Uiso  0.018200 D
   D500       0.5000  0.0761(3)    0.0189(5)    0.1218(11)  Uiso  0.020100 D
   D501       0.5000  0.1174(8)    0.4398(4)    0.2933(7)   Uiso  0.020100 D
   D502       0.5000  0.1469(4)    0.0544(5)    0.1431(8)   Uiso  0.020100 D
   D503       0.5000  0.0184(7)    0.1359(8)    0.989(3)    Uiso  0.020100 D
   D510       0.5000  0.0058(7)    0.0726(4)    0.3925(8)   Uiso  0.020100 D
   D511       0.5000  0.4478(4)    0.1095(8)    0.1769(7)   Uiso  0.020100 D
   D512       0.5000  0.0323(7)    0.1253(4)    0.3730(7)   Uiso  0.020100 D
   D513       0.5000  0.3783(5)    0.0220(3)    0.2572(17)  Uiso  0.020100 D
   D600       0.5000  0.1888(7)    0.2156(3)    0.1087(11)  Uiso  0.039000 D
   D601       0.5000  0.2288(4)    0.1355(3)    0.052(3)    Uiso  0.039000 D
   D602       0.5000  0.1579(3)    0.1661(7)    0.0111(14)  Uiso  0.039000 D
   D603       0.5000  0.2109(7)    0.2958(4)    0.3043(7)   Uiso  0.039000 D
   D610       0.5000  0.3183(8)    0.2625(4)    0.0513(7)   Uiso  0.039000 D
   D611       0.5000  0.1844(8)    0.2352(4)    0.3578(7)   Uiso  0.039000 D
   D612       0.5000  0.3670(3)    0.2682(4)   -0.018(2)    Uiso  0.039000 D
   D613       0.5000  0.3124(7)    0.1618(3)    0.310(2)    Uiso  0.039000 D
